* Shared extracted-RC topology only; no analysis, no sources, no ALTER.
.HDL "../../va/fusion_ic_nmos_lvt.va"
.HDL "../../va/fusion_ic_pmos_lvt.va"
.PARAM LCH=16n WPG=25n WPD=25n WPU=25n NF=1
.SUBCKT SRAM6T_RC BL BLB WL Q QB VDD VSS
RPORT_BL BL BL_PORT 1m
RPORT_BLB BLB BLB_PORT 1m
RPORT_WL WL WL_PORT 1m
RPORT_Q Q Q_NODE 1m
RPORT_QB QB QB_NODE 1m
RPORT_VDD VDD VDD_PORT 1m
RPORT_VSS VSS VSS_PORT 1m
XPG1 PG1_BL_SD PG1_WL_GATE PG1_PD1_Q_SD VSS nmos_lvt L='LCH' W='WPG' NF='NF'
XPG2 PG2_BLB_SD PG2_WL_GATE PD2_PG2_QB_SD VSS nmos_lvt L='LCH' W='WPG' NF='NF'
XPD1 PG1_PD1_Q_SD PD1_QB_GATE PD1_VSS_SD VSS nmos_lvt L='LCH' W='WPD' NF='NF'
XPD2 PD2_PG2_QB_SD PD2_Q_GATE PD2_VSS_SD VSS nmos_lvt L='LCH' W='WPD' NF='NF'
XPU1 PU1_Q_SD PU1_QB_GATE PU1_VDD_SD VDD pmos_lvt L='LCH' W='WPU' NF='NF'
XPU2 PU2_QB_SD PU2_Q_GATE PU2_VDD_SD VDD pmos_lvt L='LCH' W='WPU' NF='NF'
R_ALIAS_Q PU2_Q_GATE PD2_Q_GATE 1u
R_ALIAS_QB PU1_QB_GATE PD1_QB_GATE 1u
R_BL BL_PORT PG1_BL_SD 2.195710e1
R_BLB BLB_PORT PG2_BLB_SD 2.568020e1
R_WL1 WL_PORT PG1_WL_GATE 7.031990e0
R_WL2 WL_PORT PG2_WL_GATE 7.031990e0
R_WL12 PG1_WL_GATE PG2_WL_GATE 1.319760e1
R_Q0 Q_NODE PG1_PD1_Q_SD 5.248000e1
R_Q1 Q_NODE PU1_Q_SD 1.343127e2
R_Q2 Q_NODE PD2_Q_GATE 8.509470e1
R_Q3 Q_NODE PU2_Q_GATE 8.509470e1
R_Q4 PG1_PD1_Q_SD PU1_Q_SD 1.319730e2
R_Q5 PG1_PD1_Q_SD PD2_Q_GATE 9.502260e1
R_Q6 PG1_PD1_Q_SD PU2_Q_GATE 9.502260e1
R_Q7 PU1_Q_SD PD2_Q_GATE 2.194074e2
R_Q8 PU1_Q_SD PU2_Q_GATE 2.194074e2
R_Q9 PD2_Q_GATE PU2_Q_GATE 1u
R_QB0 QB_NODE PD2_PG2_QB_SD 5.248000e1
R_QB1 QB_NODE PU2_QB_SD 1.343127e2
R_QB2 QB_NODE PD1_QB_GATE 8.509470e1
R_QB3 QB_NODE PU1_QB_GATE 8.509470e1
R_QB4 PD2_PG2_QB_SD PU2_QB_SD 1.323689e2
R_QB5 PD2_PG2_QB_SD PD1_QB_GATE 5.638220e1
R_QB6 PD2_PG2_QB_SD PU1_QB_GATE 5.638220e1
R_QB7 PU2_QB_SD PD1_QB_GATE 1.772061e2
R_QB8 PU2_QB_SD PU1_QB_GATE 1.772061e2
R_QB9 PD1_QB_GATE PU1_QB_GATE 1u
R_VDD1 VDD_PORT PU1_VDD_SD 3.850940e1
R_VDD2 VDD_PORT PU2_VDD_SD 3.850940e1
R_VDD3 PU1_VDD_SD PU2_VDD_SD 1u
R_VSS1 VSS_PORT PD1_VSS_SD 4.056860e1
R_VSS2 VSS_PORT PD2_VSS_SD 4.056860e1
R_VSS3 PD1_VSS_SD PD2_VSS_SD 8.113720e1
C_BL_BLB BL_PORT BLB_PORT 2.813200e-20
C_BL_WL BL_PORT WL_PORT 2.100100e-17
C_BL_VDD BL_PORT VDD_PORT 6.178700e-22
C_BL_VSS BL_PORT VSS_PORT 1.177000e-18
C_BL_Q BL_PORT Q_NODE 1.484100e-18
C_BL_QB BL_PORT QB_NODE 2.222800e-19
C_BLB_WL BLB_PORT WL_PORT 2.105800e-17
C_BLB_VDD BLB_PORT VDD_PORT 6.067700e-22
C_BLB_VSS BLB_PORT VSS_PORT 1.085400e-18
C_BLB_Q BLB_PORT Q_NODE 3.574200e-19
C_BLB_QB BLB_PORT QB_NODE 1.574900e-18
C_WL_VDD WL_PORT VDD_PORT 3.334300e-18
C_WL_VSS WL_PORT VSS_PORT 2.645700e-17
C_WL_Q WL_PORT Q_NODE 4.063800e-17
C_WL_QB WL_PORT QB_NODE 5.671100e-17
C_VDD_VSS VDD_PORT VSS_PORT 1.529300e-21
C_VDD_Q VDD_PORT Q_NODE 1.001500e-17
C_VDD_QB VDD_PORT QB_NODE 1.000800e-17
C_VSS_Q VSS_PORT Q_NODE 1.881400e-17
C_VSS_QB VSS_PORT QB_NODE 1.900100e-17
C_Q_QB Q_NODE QB_NODE 9.374700e-17
.ENDS SRAM6T_RC
